Version 4
SHEET 1 880 680
WIRE 160 -176 -16 -176
WIRE 352 -176 240 -176
WIRE -128 -64 -176 -64
WIRE -16 -64 -16 -176
WIRE -16 -64 -48 -64
WIRE 16 -64 -16 -64
WIRE 96 -64 80 -64
WIRE 176 -64 96 -64
WIRE 352 -48 352 -176
WIRE 352 -48 240 -48
WIRE 416 -48 352 -48
WIRE 176 -32 144 -32
WIRE 352 -32 352 -48
WIRE 144 64 144 -32
WIRE 352 64 352 48
WIRE 352 64 144 64
WIRE 96 96 96 -64
WIRE 640 96 640 32
WIRE -16 112 -16 -64
WIRE -16 240 -16 176
WIRE 96 240 96 176
WIRE 352 240 352 144
WIRE 640 240 640 176
FLAG -16 240 0
FLAG 96 240 0
FLAG 352 240 0
FLAG 416 -48 V_out
IOPIN 416 -48 Out
FLAG -176 -64 V_in
IOPIN -176 -64 In
FLAG 640 240 0
FLAG 640 32 V_in
IOPIN 640 32 In
SYMBOL res 80 80 R0
SYMATTR InstName R2
SYMATTR Value {R_2}
SYMBOL res 336 48 R0
SYMATTR InstName Rb
SYMATTR Value {R_b}
SYMBOL res 336 -48 R0
SYMATTR InstName Ra
SYMATTR Value {R_a}
SYMBOL cap -32 112 R0
SYMATTR InstName C1
SYMATTR Value {C_1}
SYMBOL cap 80 -80 R90
WINDOW 0 0 32 VBottom 2
WINDOW 3 32 32 VTop 2
SYMATTR InstName C2
SYMATTR Value {C_2}
SYMBOL res -32 -80 R90
WINDOW 0 0 56 VBottom 2
WINDOW 3 32 56 VTop 2
SYMATTR InstName R1
SYMATTR Value {R_1}
SYMBOL res 256 -192 R90
WINDOW 0 0 56 VBottom 2
WINDOW 3 32 56 VTop 2
SYMATTR InstName Rf
SYMATTR Value {R_f}
SYMBOL Opamps\\opamp 208 -112 R0
SYMATTR InstName U1
SYMBOL voltage 640 80 R0
WINDOW 3 24 152 Left 2
WINDOW 123 24 124 Left 2
WINDOW 39 0 0 Left 2
SYMATTR InstName V1
SYMATTR Value 1
SYMATTR Value2 AC 1.0
TEXT -248 24 Left 2 !.lib opamp.sub
TEXT -248 56 Left 2 !.param R_1=1k
TEXT -248 88 Left 2 !.param R_2=1k
TEXT -248 120 Left 2 !.param R_f=1k
TEXT -248 152 Left 2 !.param R_a=1k
TEXT -248 184 Left 2 !.param R_b=1k
TEXT -248 216 Left 2 !.param C_1=1k
TEXT -248 248 Left 2 !.param C_2=1k
TEXT -80 -256 Left 2 ;Second Order Sallen-Key Bandpass Filter (VCVS topology)
